Version 4.1
SHEET 1 1144 852
WIRE 896 -176 192 -176
WIRE 1072 -176 896 -176
WIRE 192 -96 192 -176
WIRE 192 16 192 -16
WIRE 416 16 192 16
WIRE 480 16 416 16
WIRE 608 16 544 16
WIRE 1072 16 1072 -176
WIRE -64 64 -192 64
WIRE 32 64 -64 64
WIRE 304 64 32 64
WIRE 192 80 192 16
WIRE 416 80 416 16
WIRE 608 112 608 16
WIRE 688 112 608 112
WIRE -192 128 -192 64
WIRE 32 128 32 64
WIRE 144 128 32 128
WIRE 304 128 304 64
WIRE 368 128 304 128
WIRE 32 176 32 128
WIRE 160 208 160 176
WIRE 384 208 384 176
WIRE 384 208 160 208
WIRE 160 224 160 208
WIRE 608 224 608 112
WIRE 1072 224 1072 96
WIRE -192 256 -192 208
WIRE 400 352 160 352
WIRE 896 352 896 -176
WIRE 896 352 400 352
WIRE 160 432 160 352
WIRE 400 512 400 352
WIRE 160 560 160 512
WIRE 352 560 160 560
WIRE 160 608 160 560
WIRE 656 608 576 608
WIRE -64 656 -64 64
WIRE 0 656 -64 656
WIRE 112 656 0 656
WIRE 368 672 368 608
WIRE 480 672 368 672
WIRE 576 672 576 608
WIRE 576 672 544 672
WIRE 656 672 576 672
WIRE 0 704 0 656
WIRE 368 704 368 672
WIRE 656 704 656 672
WIRE 128 752 128 704
FLAG 160 304 0
FLAG 32 256 0
FLAG 608 304 0
FLAG 1072 224 0
FLAG -192 256 0
FLAG 128 832 0
FLAG 0 784 0
FLAG 368 784 0
FLAG 656 784 0
FLAG 688 112 12AX7_Output
IOPIN 688 112 Out
FLAG 656 608 12AU7_Output
IOPIN 656 608 Out
SYMBOL Misc\\triode 192 128 R0
WINDOW 0 59 -25 Left 2
SYMATTR InstName U1
SYMATTR Value 12AX7
SYMBOL voltage 1072 0 R0
WINDOW 123 0 0 Left 0
WINDOW 39 0 0 Left 0
SYMATTR InstName V1
SYMATTR Value 280
SYMBOL Misc\\triode 416 128 R0
SYMATTR InstName U2
SYMATTR Value 12AX7
SYMBOL res 176 -112 R0
SYMATTR InstName R1
SYMATTR Value 82K
SYMBOL res 144 208 R0
SYMATTR InstName R2
SYMATTR Value 2.2k
SYMBOL res 16 160 R0
SYMATTR InstName R3
SYMATTR Value 1000k
SYMBOL res 592 208 R0
SYMATTR InstName R5
SYMATTR Value 1e6
SYMBOL cap 544 0 R90
WINDOW 0 0 32 VBottom 2
WINDOW 3 32 32 VTop 2
SYMATTR InstName C1
SYMATTR Value 2µ
SYMBOL voltage -192 112 R0
WINDOW 123 -273 17 Left 2
WINDOW 39 0 0 Left 0
WINDOW 3 -275 45 Left 2
SYMATTR Value2 AC 1
SYMATTR InstName V2
SYMATTR Value SINE(0 1 20e3)
SYMBOL Misc\\triode 160 656 R0
SYMATTR InstName U3
SYMATTR Value 12AU7
SYMBOL Misc\\triode 400 560 R0
SYMATTR InstName U4
SYMATTR Value 12AU7
SYMBOL res 144 416 R0
SYMATTR InstName R6
SYMATTR Value 47K
SYMBOL res 112 736 R0
SYMATTR InstName R7
SYMATTR Value 1.2k
SYMBOL res -16 688 R0
SYMATTR InstName R8
SYMATTR Value 1e6
SYMBOL res 352 688 R0
SYMATTR InstName R9
SYMATTR Value 33k
SYMBOL res 640 688 R0
SYMATTR InstName R10
SYMATTR Value 1e6
SYMBOL cap 544 656 R90
WINDOW 0 0 32 VBottom 2
WINDOW 3 32 32 VTop 2
SYMATTR InstName C2
SYMATTR Value 2µ
TEXT -232 -24 Left 2 !.lib VTT_model.lib
TEXT -232 8 Left 2 !.ac oct 10 20 2000000
TEXT -232 -56 Left 2 ;.tran 0.0005
